<?xml version="1.0" encoding="UTF-8"?>
<!DOCTYPE facilities SYSTEM "http://www.matsim.org/files/dtd/facilities_v1.dtd">
<facilities>

<!-- ====================================================================== -->

	<facility id="0" x="640379.2977084899" y="239119.4602330504" access="private" type="household">
		<activity type="work">
			<opentime day="wkday" start_time="08:00:00" end_time="19:00:00" />
		</activity>

	</facility>

<!-- ====================================================================== -->

	<facility id="1" x="639933.1761034644" y="246900.5367185299" access="public" type="supermarket" opentime="mon, tue, wen, thu, fri, sat">
		<activity type="work">
			<opentime day="wkday" start_time="08:00:00" end_time="19:00:00" />
		</activity>

	</facility>

<!-- ====================================================================== -->

	<facility id="10" x="641913.4246780379" y="219339.25546540017" access="public" type="coffeeshop" opentime="mon, tue, wen, thu, fri, sat, sun">
		<activity type="shop">
			<opentime day="wkday" start_time="08:00:00" end_time="19:00:00" />
		</activity>

		<activity type="work">
			<opentime day="wkday" start_time="08:00:00" end_time="19:00:00" />
		</activity>

	</facility>

<!-- ====================================================================== -->

	<facility id="100" x="651865.3782964648" y="249537.9656652964" access="public" type="movietheatre" opentime="tue, wen, thu, fri, sat, sun">
		<activity type="work">
			<opentime day="wkday" start_time="08:00:00" end_time="19:00:00" />
		</activity>

	</facility>

<!-- ====================================================================== -->

	<facility id="1000" x="689040.4522933331" y="242899.94460587288" access="public" type="administration" opentime="mon, wen, fri">
		<activity type="work">
			<opentime day="wkday" start_time="08:00:00" end_time="19:00:00" />
		</activity>

	</facility>

<!-- ====================================================================== -->

	<facility id="10000" x="693599.2028618137" y="279276.08429307485">
		<activity type="home">
			<opentime day="wk" start_time="00:00:00" end_time="24:00:00" />
		</activity>

	</facility>

</facilities>
