<?xml version="1.0" encoding="UTF-8"?>
<!DOCTYPE objectAttributes SYSTEM "http://matsim.org/files/dtd/objectattributes_v1.dtd">

<objectAttributes>
	<object id="time_0">
		<attribute name="subpopulation" class="java.lang.String">time</attribute>
	</object>
	<object id="time_1">
		<attribute name="subpopulation" class="java.lang.String">time</attribute>
	</object>
	<object id="time_2">
		<attribute name="subpopulation" class="java.lang.String">time</attribute>
	</object>
	<object id="time_3">
		<attribute name="subpopulation" class="java.lang.String">time</attribute>
	</object>
	<object id="time_4">
		<attribute name="subpopulation" class="java.lang.String">time</attribute>
	</object>
	<object id="time_5">
		<attribute name="subpopulation" class="java.lang.String">time</attribute>
	</object>
	<object id="time_6">
		<attribute name="subpopulation" class="java.lang.String">time</attribute>
	</object>
	<object id="time_7">
		<attribute name="subpopulation" class="java.lang.String">time</attribute>
	</object>
	<object id="time_8">
		<attribute name="subpopulation" class="java.lang.String">time</attribute>
	</object>
	<object id="time_9">
		<attribute name="subpopulation" class="java.lang.String">time</attribute>
	</object>
	<object id="time_10">
		<attribute name="subpopulation" class="java.lang.String">time</attribute>
	</object>
	<object id="time_11">
		<attribute name="subpopulation" class="java.lang.String">time</attribute>
	</object>
</objectAttributes>