<?xml version="1.0" encoding="utf-8"?>
<!DOCTYPE population SYSTEM "http://www.matsim.org/files/dtd/population_v6.dtd">

<population>



<!-- ====================================================================== -->

	<person id="reroute_0">
		<plan selected="yes">
			<activity type="h" x="-20000.0" y="0.0" end_time="06:00:00" >
			</activity>
			<leg mode="car">
			</leg>
			<activity type="w" x="-15000.0" y="0.0" end_time="17:00:00" >
			</activity>
			<leg mode="car">
			</leg>
			<activity type="h" x="-865.0" y="5925.0" start_time="18:00:00" >
			</activity>
		</plan>

	</person>

<!-- ====================================================================== -->

	<person id="reroute_1">
		<plan selected="yes">
			<activity type="h" x="-20000.0" y="0.0" end_time="06:00:00" >
			</activity>
			<leg mode="car">
			</leg>
			<activity type="w" x="-15000.0" y="0.0" end_time="17:00:00" >
			</activity>
			<leg mode="car">
			</leg>
			<activity type="h" x="-865.0" y="5925.0" start_time="18:00:00" >
			</activity>
		</plan>

	</person>

<!-- ====================================================================== -->

	<person id="reroute_10">
		<plan selected="yes">
			<activity type="h" x="-20000.0" y="0.0" end_time="06:00:00" >
			</activity>
			<leg mode="car">
			</leg>
			<activity type="w" x="-15000.0" y="0.0" end_time="17:00:00" >
			</activity>
			<leg mode="car">
			</leg>
			<activity type="h" x="-865.0" y="5925.0" start_time="18:00:00" >
			</activity>
		</plan>

	</person>

<!-- ====================================================================== -->

	<person id="reroute_11">
		<plan selected="yes">
			<activity type="h" x="-20000.0" y="0.0" end_time="06:00:00" >
			</activity>
			<leg mode="car">
			</leg>
			<activity type="w" x="-15000.0" y="0.0" end_time="17:00:00" >
			</activity>
			<leg mode="car">
			</leg>
			<activity type="h" x="-865.0" y="5925.0" start_time="18:00:00" >
			</activity>
		</plan>

	</person>

<!-- ====================================================================== -->

	<person id="reroute_12">
		<plan selected="yes">
			<activity type="h" x="-20000.0" y="0.0" end_time="06:00:00" >
			</activity>
			<leg mode="car">
			</leg>
			<activity type="w" x="-15000.0" y="0.0" end_time="17:00:00" >
			</activity>
			<leg mode="car">
			</leg>
			<activity type="h" x="-865.0" y="5925.0" start_time="18:00:00" >
			</activity>
		</plan>

	</person>

<!-- ====================================================================== -->

	<person id="reroute_13">
		<plan selected="yes">
			<activity type="h" x="-20000.0" y="0.0" end_time="06:00:00" >
			</activity>
			<leg mode="car">
			</leg>
			<activity type="w" x="-15000.0" y="0.0" end_time="17:00:00" >
			</activity>
			<leg mode="car">
			</leg>
			<activity type="h" x="-865.0" y="5925.0" start_time="18:00:00" >
			</activity>
		</plan>

	</person>

<!-- ====================================================================== -->

	<person id="reroute_14">
		<plan selected="yes">
			<activity type="h" x="-20000.0" y="0.0" end_time="06:00:00" >
			</activity>
			<leg mode="car">
			</leg>
			<activity type="w" x="-15000.0" y="0.0" end_time="17:00:00" >
			</activity>
			<leg mode="car">
			</leg>
			<activity type="h" x="-865.0" y="5925.0" start_time="18:00:00" >
			</activity>
		</plan>

	</person>

<!-- ====================================================================== -->

	<person id="reroute_15">
		<plan selected="yes">
			<activity type="h" x="-20000.0" y="0.0" end_time="06:00:00" >
			</activity>
			<leg mode="car">
			</leg>
			<activity type="w" x="-15000.0" y="0.0" end_time="17:00:00" >
			</activity>
			<leg mode="car">
			</leg>
			<activity type="h" x="-865.0" y="5925.0" start_time="18:00:00" >
			</activity>
		</plan>

	</person>

<!-- ====================================================================== -->

	<person id="reroute_16">
		<plan selected="yes">
			<activity type="h" x="-20000.0" y="0.0" end_time="06:00:00" >
			</activity>
			<leg mode="car">
			</leg>
			<activity type="w" x="-15000.0" y="0.0" end_time="17:00:00" >
			</activity>
			<leg mode="car">
			</leg>
			<activity type="h" x="-865.0" y="5925.0" start_time="18:00:00" >
			</activity>
		</plan>

	</person>

<!-- ====================================================================== -->

	<person id="reroute_17">
		<plan selected="yes">
			<activity type="h" x="-20000.0" y="0.0" end_time="06:00:00" >
			</activity>
			<leg mode="car">
			</leg>
			<activity type="w" x="-15000.0" y="0.0" end_time="17:00:00" >
			</activity>
			<leg mode="car">
			</leg>
			<activity type="h" x="-865.0" y="5925.0" start_time="18:00:00" >
			</activity>
		</plan>

	</person>

<!-- ====================================================================== -->

	<person id="reroute_18">
		<plan selected="yes">
			<activity type="h" x="-20000.0" y="0.0" end_time="06:00:00" >
			</activity>
			<leg mode="car">
			</leg>
			<activity type="w" x="-15000.0" y="0.0" end_time="17:00:00" >
			</activity>
			<leg mode="car">
			</leg>
			<activity type="h" x="-865.0" y="5925.0" start_time="18:00:00" >
			</activity>
		</plan>

	</person>

<!-- ====================================================================== -->

	<person id="reroute_19">
		<plan selected="yes">
			<activity type="h" x="-20000.0" y="0.0" end_time="06:00:00" >
			</activity>
			<leg mode="car">
			</leg>
			<activity type="w" x="-15000.0" y="0.0" end_time="17:00:00" >
			</activity>
			<leg mode="car">
			</leg>
			<activity type="h" x="-865.0" y="5925.0" start_time="18:00:00" >
			</activity>
		</plan>

	</person>

<!-- ====================================================================== -->

	<person id="reroute_2">
		<plan selected="yes">
			<activity type="h" x="-20000.0" y="0.0" end_time="06:00:00" >
			</activity>
			<leg mode="car">
			</leg>
			<activity type="w" x="-15000.0" y="0.0" end_time="17:00:00" >
			</activity>
			<leg mode="car">
			</leg>
			<activity type="h" x="-865.0" y="5925.0" start_time="18:00:00" >
			</activity>
		</plan>

	</person>

<!-- ====================================================================== -->

	<person id="reroute_20">
		<plan selected="yes">
			<activity type="h" x="-20000.0" y="0.0" end_time="06:00:00" >
			</activity>
			<leg mode="car">
			</leg>
			<activity type="w" x="-15000.0" y="0.0" end_time="17:00:00" >
			</activity>
			<leg mode="car">
			</leg>
			<activity type="h" x="-865.0" y="5925.0" start_time="18:00:00" >
			</activity>
		</plan>

	</person>

<!-- ====================================================================== -->

	<person id="reroute_21">
		<plan selected="yes">
			<activity type="h" x="-20000.0" y="0.0" end_time="06:00:00" >
			</activity>
			<leg mode="car">
			</leg>
			<activity type="w" x="-15000.0" y="0.0" end_time="17:00:00" >
			</activity>
			<leg mode="car">
			</leg>
			<activity type="h" x="-865.0" y="5925.0" start_time="18:00:00" >
			</activity>
		</plan>

	</person>

<!-- ====================================================================== -->

	<person id="reroute_22">
		<plan selected="yes">
			<activity type="h" x="-20000.0" y="0.0" end_time="06:00:00" >
			</activity>
			<leg mode="car">
			</leg>
			<activity type="w" x="-15000.0" y="0.0" end_time="17:00:00" >
			</activity>
			<leg mode="car">
			</leg>
			<activity type="h" x="-865.0" y="5925.0" start_time="18:00:00" >
			</activity>
		</plan>

	</person>

<!-- ====================================================================== -->

	<person id="reroute_23">
		<plan selected="yes">
			<activity type="h" x="-20000.0" y="0.0" end_time="06:00:00" >
			</activity>
			<leg mode="car">
			</leg>
			<activity type="w" x="-15000.0" y="0.0" end_time="17:00:00" >
			</activity>
			<leg mode="car">
			</leg>
			<activity type="h" x="-865.0" y="5925.0" start_time="18:00:00" >
			</activity>
		</plan>

	</person>

<!-- ====================================================================== -->

	<person id="reroute_24">
		<plan selected="yes">
			<activity type="h" x="-20000.0" y="0.0" end_time="06:00:00" >
			</activity>
			<leg mode="car">
			</leg>
			<activity type="w" x="-15000.0" y="0.0" end_time="17:00:00" >
			</activity>
			<leg mode="car">
			</leg>
			<activity type="h" x="-865.0" y="5925.0" start_time="18:00:00" >
			</activity>
		</plan>

	</person>

<!-- ====================================================================== -->

	<person id="reroute_25">
		<plan selected="yes">
			<activity type="h" x="-20000.0" y="0.0" end_time="06:00:00" >
			</activity>
			<leg mode="car">
			</leg>
			<activity type="w" x="-15000.0" y="0.0" end_time="17:00:00" >
			</activity>
			<leg mode="car">
			</leg>
			<activity type="h" x="-865.0" y="5925.0" start_time="18:00:00" >
			</activity>
		</plan>

	</person>

<!-- ====================================================================== -->

	<person id="reroute_26">
		<plan selected="yes">
			<activity type="h" x="-20000.0" y="0.0" end_time="06:00:00" >
			</activity>
			<leg mode="car">
			</leg>
			<activity type="w" x="-15000.0" y="0.0" end_time="17:00:00" >
			</activity>
			<leg mode="car">
			</leg>
			<activity type="h" x="-865.0" y="5925.0" start_time="18:00:00" >
			</activity>
		</plan>

	</person>

<!-- ====================================================================== -->

	<person id="reroute_27">
		<plan selected="yes">
			<activity type="h" x="-20000.0" y="0.0" end_time="06:00:00" >
			</activity>
			<leg mode="car">
			</leg>
			<activity type="w" x="-15000.0" y="0.0" end_time="17:00:00" >
			</activity>
			<leg mode="car">
			</leg>
			<activity type="h" x="-865.0" y="5925.0" start_time="18:00:00" >
			</activity>
		</plan>

	</person>

<!-- ====================================================================== -->

</population>
